Circuit: * C:\users\matthieu\Bureau\Guitare Midi - Fablab\schema d'amplification du signal\guitare amplification.asc

Direct Newton iteration for .op point succeeded.

Date: Tue May 17 02:53:26 2016
Total elapsed time: 0.087 seconds.

tnom = 27
temp = 27
method = trap
totiter = 10
traniter = 0
tranpoints = 0
accept = 0
rejected = 0
matrix size = 17
fillins = 2
solver = Normal
Matrix Compiler1:      50 opcodes
Matrix Compiler2: 1.51 KB object code size

